#p b3lyp sto-3g

title

0 1
 C    5.5650000000007385        2.7825000000003692        1.5269840000006292     
 N    4.7530665000006298        1.9705665000002617       0.82719440000034083     
 O    5.5650000000007385        2.7825000000003692        2.7883852000011493     
 N    6.3769335000008454        3.5944335000004770       0.82719440000034083     
 H    4.7630835000006320        1.9805835000002627      -0.17799200000007348     
 H    4.1320125000005490        1.3495125000001789        1.3241668000005458     
 H    6.3669165000008441        3.5844165000004753      -0.17799200000007348     
 H    6.9979875000009288        4.2154875000005587        1.3241668000005458     
 C    2.7825000000003697        5.5650000000007385        3.1570160000013012     
 N    1.9705665000002623        6.3769335000008454        3.8568056000015893     
 N    3.5944335000004779        4.7530665000006298        3.8568056000015893     
 O    2.7825000000003697        5.5650000000007385        1.8956148000007811     
 H    1.9805835000002634        6.3669165000008441        4.8619920000020036     
 H    1.3495125000001797        6.9979875000009288        3.3598332000013849     
 H    4.2154875000005596        4.1320125000005490        3.3598332000013849     
 H    3.5844165000004762        4.7630835000006320        4.8619920000020036     

